&amip_interp_nml
       interp_oi_sst = .true.
       use_ncep_sst = .true.
       use_ncep_ice = .false.
       no_anom_sst = .false.
       data_set = 'reynolds_oi',
       date_out_of_range = 'climo',
/

&atmos_model_nml
       blocksize = 32
       chksum_debug = .false.
       dycore_only = .false.
       fhout = 1
       fhmax = 800
       fhmaxhf = -1
       ccpp_suite = 'FV3_GFS_v15p2_coupled'
/

&diag_manager_nml
       prepend_date = .F.
/

&fms_io_nml
       checksum_required   = .false.
       max_files_r = 100,
       max_files_w = 100,
/

&fms_nml
       clock_grain = 'ROUTINE',
       domains_stack_size = 40000000,
       print_memory_usage = .false.
/

&fv_grid_nml
       grid_file = 'INPUT/grid_spec.nc'
/

&fv_core_nml
       layout   = 1,1
       io_layout = 1,1
       npx      = 97,
       npy      = 97,
       ntiles   = 6,
       grid_type = -1
/

&gfs_physics_nml
       do_sppt        = .true.
/
&nam_stochy
  SPPT=0.8,0.4,0.1
  SPPT_TAU=21600,86400,216000
  SPPT_LSCALE=500000,1000000,2000000
  SPPT_LOGIT=.TRUE.,
  SPPT_SFCLIMIT=.TRUE.,
  ISEED_SPPT=3,
  STOCHINI=.false.
/
&nam_sfcperts
/
